/*--------------------------------*- C++ -*----------------------------------*\
  =========                 |
  \\      /  F ield         | OpenFOAM: The Open Source CFD Toolbox
   \\    /   O peration     | Website:  https://openfoam.org
    \\  /    A nd           | Version:  8
     \\/     M anipulation  |
\*---------------------------------------------------------------------------*/
FoamFile
{
    version     2.0;
    format      ascii;
    class       featureEdgeMesh;
    location    "constant/triSurface";
    object      clamp.eMesh;
}
// * * * * * * * * * * * * * * * * * * * * * * * * * * * * * * * * * * * * * //


// points:

674
(
(0 0 0)
(0 0 3)
(8 0 0)
(8 0 3)
(0.261729 0.270711 1.42929)
(0.280967 0.283147 1.44444)
(0.295262 0.292388 1.46173)
(4.22058 0.148048 1.58507)
(2.77772 0.143234 1.58215)
(4.24415 0.129192 1.57059)
(0.056057 0.107612 1.53827)
(0.052455 0.101921 1.51951)
(0.052455 0.101921 1.48049)
(0.056057 0.107612 1.46173)
(0.05124 0.1 1.5)
(0.153028 0.2 1.6)
(0.151584 0.198963 1.5999)
(0.159191 0.204425 1.40044)
(0.151526 0.198922 1.40011)
(0.151634 0.199 1.4001)
(0.153028 0.2 1.4)
(0.104038 0.161103 1.59205)
(0.125861 0.179707 1.59784)
(0.104777 0.161732 1.59239)
(0.126579 0.180318 1.59803)
(0.126137 0.179942 1.59791)
(0.104038 0.161103 1.40795)
(0.126727 0.180444 1.40194)
(0.126379 0.180148 1.40203)
(0.125861 0.179707 1.40216)
(0.104777 0.161732 1.40761)
(0.078849 0.135935 1.57616)
(0.087481 0.144559 1.58321)
(0.078849 0.135935 1.42384)
(0.087481 0.144559 1.41679)
(0.063182 0.117137 1.5559)
(0.062946 0.116853 1.55556)
(0.073624 0.129666 1.57102)
(0.073532 0.129556 1.57093)
(0.073386 0.12938 1.57079)
(0.07331 0.129289 1.57071)
(0.073624 0.129666 1.42898)
(0.062946 0.116853 1.44444)
(0.063182 0.117137 1.4441)
(0.07331 0.129289 1.42929)
(0.073386 0.12938 1.42921)
(0.073532 0.129556 1.42907)
(0.211543 0.238268 1.59239)
(0.182524 0.219509 1.59808)
(0.238287 0.255557 1.58315)
(0.261729 0.270711 1.57071)
(0.280967 0.283147 1.55556)
(0.307037 0.3 1.5)
(0.304065 0.298079 1.51951)
(0.295262 0.292388 1.53827)
(3.28 0.153212 1.41217)
(3.72228 0.143234 1.41785)
(3.27818 0.144443 1.41685)
(4.22 0.153212 1.41217)
(3.77772 0.143234 1.41785)
(4.27827 0.161732 1.40761)
(4.27494 0.139171 1.42118)
(3.75585 0.129192 1.42941)
(2.77942 0.148048 1.58507)
(3.72 0.153212 1.58783)
(3.72506 0.168622 1.59448)
(4.23852 0.130514 1.57172)
(4.26148 0.130514 1.57172)
(4.27942 0.148048 1.58507)
(4.76148 0.130514 1.57172)
(4.77942 0.148048 1.58507)
(3.22173 0.161732 1.40761)
(3.22506 0.168622 1.40552)
(3.22182 0.144443 1.41685)
(3.22 0.153212 1.41217)
(3.22506 0.139171 1.42118)
(3.27827 0.161732 1.40761)
(3.27494 0.168622 1.40552)
(3.72058 0.148048 1.41493)
(3.73852 0.130514 1.42828)
(3.27494 0.139171 1.42118)
(4.22173 0.161732 1.40761)
(4.22506 0.168622 1.40552)
(4.22182 0.144443 1.41685)
(3.77942 0.148048 1.41493)
(3.76148 0.130514 1.42828)
(4.22506 0.139171 1.42118)
(4.27494 0.168622 1.40552)
(4.27818 0.144443 1.41685)
(4.28 0.153212 1.41217)
(3.74415 0.129192 1.42941)
(3.72182 0.144443 1.58315)
(3.72506 0.139171 1.57882)
(3.72173 0.161732 1.59239)
(4.22228 0.143234 1.58215)
(3.77818 0.144443 1.58315)
(3.77494 0.139171 1.57882)
(3.77827 0.161732 1.59239)
(3.78 0.153212 1.58783)
(3.77494 0.168622 1.59448)
(4.27772 0.143234 1.58215)
(4.25585 0.129192 1.57059)
(4.75585 0.129192 1.57059)
(4.77772 0.143234 1.58215)
(7.86828 0.184703 0)
(7.84081 0.204425 0)
(7.84081 0.204425 3)
(7.86828 0.184703 3)
(4 2.4 0)
(3.9996 2.4 0)
(3.9996 2.4 3)
(4 2.4 3)
(4.78121 2.1823 0)
(4.78121 2.1823 3)
(0.045332 0.090664 0)
(0.045332 0.090664 3)
(3.8459 2.38934 0)
(3.8459 2.38934 3)
(4.65541 2.24957 0)
(4.65541 2.24957 3)
(3.67428 2.35842 0)
(3.67428 2.35842 3)
(7.95467 0.090664 0)
(7.95467 0.090664 3)
(4.49846 2.31026 0)
(4.49846 2.31026 3)
(3.50154 2.31026 0)
(3.50154 2.31026 3)
(7.94138 0.111663 0)
(7.94138 0.111663 3)
(4.32572 2.35842 0)
(4.32572 2.35842 3)
(3.34459 2.24957 0)
(3.34459 2.24957 3)
(7.92115 0.135935 0)
(7.92115 0.135935 3)
(4.1541 2.38934 0)
(4.1541 2.38934 3)
(3.21879 2.1823 0)
(3.21879 2.1823 3)
(7.89596 0.161103 0)
(7.89596 0.161103 3)
(4.0004 2.4 0)
(4.0004 2.4 3)
(0.05862 0.111664 0)
(0.05862 0.111664 3)
(0.05602 0.107554 1.53808)
(0.05862 0.111664 1.54585)
(0.056116 0.107706 1.46156)
(0.05862 0.111664 1.45415)
(0.05249 0.101975 1.48031)
(0.052444 0.101903 1.51932)
(0.051251 0.100018 1.49982)
(0.151526 0.198922 1.59989)
(0.131722 0.184703 1.59849)
(0.131722 0.184703 3)
(0.159191 0.204425 3)
(0.151634 0.199 1.5999)
(0.159191 0.204425 1.59956)
(0.159191 0.204425 0)
(0.131722 0.184703 0)
(0.131722 0.184703 1.40151)
(0.151584 0.198963 1.4001)
(0.153787 0.200546 1.40005)
(0.104393 0.161405 1.59221)
(0.104038 0.161103 3)
(0.126782 0.180491 1.59808)
(0.104625 0.161603 1.59232)
(0.125765 0.179624 1.59782)
(0.126727 0.180444 1.59807)
(0.126379 0.180148 1.59798)
(0.126782 0.180491 1.40192)
(0.104038 0.161103 0)
(0.104393 0.161405 1.40779)
(0.126579 0.180318 1.40197)
(0.126137 0.179942 1.40209)
(0.125765 0.179624 1.40218)
(0.104625 0.161603 1.40768)
(0.087364 0.144443 1.58315)
(0.078849 0.135935 3)
(0.087647 0.144726 1.5833)
(0.078849 0.135935 0)
(0.087364 0.144443 1.41685)
(0.087647 0.144726 1.4167)
(0.063174 0.117127 1.55589)
(0.062857 0.116747 1.55536)
(0.073652 0.129699 1.57105)
(0.073452 0.129459 1.57085)
(0.063184 0.117139 1.55591)
(0.073338 0.129322 1.57074)
(0.073652 0.129699 1.42895)
(0.063174 0.117127 1.44411)
(0.063184 0.117139 1.44409)
(0.073338 0.129322 1.42926)
(0.073452 0.129459 1.42915)
(0.182524 0.219509 1.40192)
(0.183492 0.220135 1.40211)
(0.181528 0.218865 1.59814)
(0.210433 0.23755 1.59261)
(0.211543 0.238268 1.40761)
(0.212576 0.238936 1.40797)
(0.237134 0.254812 1.58354)
(0.238287 0.255557 1.41685)
(0.239307 0.256216 1.41739)
(0.260618 0.269993 1.5713)
(0.279987 0.282514 1.55633)
(0.262648 0.271305 1.43001)
(0.281699 0.28362 1.44533)
(0.295735 0.292694 1.46274)
(0.304065 0.298079 1.48049)
(0.304229 0.298185 1.48157)
(0.306871 0.299893 1.50109)
(0.303579 0.297765 1.52054)
(0.294496 0.291893 1.53919)
(2.72879 0.173089 1.40417)
(2.73333 0.176755 1.40305)
(2.72058 0.148048 1.41493)
(2.72 0.153212 1.41217)
(2.72879 0.135609 1.4241)
(2.72506 0.139171 1.42118)
(2.76148 0.179479 1.40223)
(2.76667 0.176755 1.40305)
(2.77942 0.158376 1.4094)
(2.78 0.153212 1.41217)
(2.77772 0.143234 1.41785)
(2.77494 0.139171 1.42118)
(3.26148 0.179479 1.40223)
(3.26667 0.176755 1.40305)
(3.27942 0.158376 1.4094)
(3.27772 0.143234 1.41785)
(3.76148 0.179479 1.40223)
(3.76667 0.176755 1.40305)
(3.77942 0.158376 1.4094)
(3.78 0.153212 1.41217)
(3.77494 0.139171 1.42118)
(4.25808 0.180491 1.40192)
(4.26148 0.179479 1.40223)
(4.27942 0.158376 1.4094)
(4.27772 0.143234 1.41785)
(2.74415 0.181231 1.40185)
(2.75 0.18186 1.40179)
(5.27121 0.173089 1.40417)
(5.27494 0.168622 1.40552)
(4.76148 0.179479 1.40223)
(4.76667 0.176755 1.40305)
(5.27942 0.158376 1.4094)
(5.28 0.153212 1.41217)
(4.77942 0.158376 1.4094)
(4.78 0.153212 1.41217)
(5.27121 0.135609 1.4241)
(5.26667 0.132686 1.4265)
(4.77772 0.143234 1.41785)
(4.77494 0.139171 1.42118)
(3.75 0.128801 1.42989)
(2.72506 0.139171 1.57882)
(2.72879 0.135609 1.5759)
(2.72 0.153212 1.58783)
(2.72058 0.148048 1.58507)
(2.72879 0.173089 1.59583)
(2.72506 0.168622 1.59448)
(2.76148 0.130514 1.57172)
(2.76667 0.132686 1.5735)
(3.22 0.153212 1.58783)
(3.22058 0.148048 1.58507)
(3.22506 0.168622 1.59448)
(3.22228 0.163525 1.59293)
(3.26148 0.130514 1.57172)
(3.26667 0.132686 1.5735)
(3.72058 0.148048 1.58507)
(3.72228 0.163525 1.59293)
(3.76148 0.130514 1.57172)
(3.76667 0.132686 1.5735)
(4.22 0.153212 1.58783)
(4.22506 0.168622 1.59448)
(4.22228 0.163525 1.59293)
(4.73333 0.132686 1.5735)
(4.73852 0.130514 1.57172)
(4.72 0.153212 1.58783)
(4.72058 0.148048 1.58507)
(4.72506 0.168622 1.59448)
(4.72228 0.163525 1.59293)
(2.74415 0.129192 1.57059)
(2.75 0.128801 1.57011)
(5.27121 0.135609 1.5759)
(5.27494 0.139171 1.57882)
(5.23333 0.132686 1.5735)
(5.23852 0.130514 1.57172)
(5.27942 0.148048 1.58507)
(5.28 0.153212 1.58783)
(5.22 0.153212 1.58783)
(5.22058 0.148048 1.58507)
(5.27494 0.168622 1.59448)
(5.27121 0.173089 1.59583)
(5.22506 0.168622 1.59448)
(5.22228 0.163525 1.59293)
(4.25 0.18186 1.59821)
(4.24415 0.181231 1.59815)
(2.72173 0.161732 1.40761)
(2.72228 0.163525 1.40707)
(2.73852 0.179479 1.40223)
(2.74191 0.180491 1.40192)
(2.72506 0.168622 1.40552)
(2.72182 0.144443 1.41685)
(2.72058 0.158376 1.4094)
(2.74367 0.129289 1.42929)
(2.73852 0.130514 1.42828)
(2.72228 0.143234 1.41785)
(2.73333 0.132686 1.4265)
(3.22228 0.163525 1.40707)
(2.77772 0.163525 1.40707)
(2.77827 0.161732 1.40761)
(2.77494 0.168622 1.40552)
(3.22879 0.173089 1.40417)
(2.77121 0.173089 1.40417)
(3.23333 0.176755 1.40305)
(3.23852 0.179479 1.40223)
(3.24191 0.180491 1.40192)
(2.75809 0.180491 1.40192)
(3.22058 0.148048 1.41493)
(2.77942 0.148048 1.41493)
(2.77818 0.144443 1.41685)
(3.22058 0.158376 1.4094)
(3.24367 0.129289 1.42929)
(3.23852 0.130514 1.42828)
(2.76148 0.130514 1.42828)
(2.75633 0.129289 1.42929)
(3.23333 0.132686 1.4265)
(2.76667 0.132686 1.4265)
(3.22879 0.135609 1.4241)
(2.77121 0.135609 1.4241)
(3.22228 0.143234 1.41785)
(3.72173 0.161732 1.40761)
(3.72228 0.163525 1.40707)
(3.27772 0.163525 1.40707)
(3.72506 0.168622 1.40552)
(3.72879 0.173089 1.40417)
(3.27121 0.173089 1.40417)
(3.73333 0.176755 1.40305)
(3.73852 0.179479 1.40223)
(3.74191 0.180491 1.40192)
(3.25809 0.180491 1.40192)
(3.72182 0.144443 1.41685)
(3.27942 0.148048 1.41493)
(3.72 0.153212 1.41217)
(3.72058 0.158376 1.4094)
(3.74367 0.129289 1.42929)
(3.26148 0.130514 1.42828)
(3.25633 0.129289 1.42929)
(3.73333 0.132686 1.4265)
(3.26667 0.132686 1.4265)
(3.72879 0.135609 1.4241)
(3.27121 0.135609 1.4241)
(3.72506 0.139171 1.42118)
(4.22228 0.163525 1.40707)
(3.77772 0.163525 1.40707)
(3.77827 0.161732 1.40761)
(3.77494 0.168622 1.40552)
(4.22879 0.173089 1.40417)
(3.77121 0.173089 1.40417)
(4.23333 0.176755 1.40305)
(4.23852 0.179479 1.40223)
(4.24192 0.180491 1.40192)
(3.75809 0.180491 1.40192)
(4.22058 0.148048 1.41493)
(3.77818 0.144443 1.41685)
(4.22058 0.158376 1.4094)
(4.24367 0.129289 1.42929)
(4.23852 0.130514 1.42828)
(3.75633 0.129289 1.42929)
(4.23333 0.132686 1.4265)
(3.76667 0.132686 1.4265)
(4.22879 0.135609 1.4241)
(3.77121 0.135609 1.4241)
(4.22228 0.143234 1.41785)
(4.72173 0.161732 1.40761)
(4.72228 0.163525 1.40707)
(4.27772 0.163525 1.40707)
(4.72506 0.168622 1.40552)
(4.72879 0.173089 1.40417)
(4.27121 0.173089 1.40417)
(4.73333 0.176755 1.40305)
(4.26667 0.176755 1.40305)
(4.73852 0.179479 1.40223)
(4.74192 0.180491 1.40192)
(4.72182 0.144443 1.41685)
(4.72058 0.148048 1.41493)
(4.27942 0.148048 1.41493)
(4.72 0.153212 1.41217)
(4.72058 0.158376 1.4094)
(4.74367 0.129289 1.42929)
(4.73852 0.130514 1.42828)
(4.26148 0.130514 1.42828)
(4.25633 0.129289 1.42929)
(4.73333 0.132686 1.4265)
(4.26667 0.132686 1.4265)
(4.72879 0.135609 1.4241)
(4.27121 0.135609 1.4241)
(4.72506 0.139171 1.42118)
(4.72228 0.143234 1.41785)
(3.24415 0.181231 1.40185)
(2.75585 0.181231 1.40185)
(3.25 0.18186 1.40179)
(3.25585 0.181231 1.40185)
(3.74415 0.181231 1.40185)
(3.75 0.18186 1.40179)
(3.75585 0.181231 1.40185)
(4.24415 0.181231 1.40185)
(4.25 0.18186 1.40179)
(4.25585 0.181231 1.40185)
(4.74415 0.181231 1.40185)
(4.75 0.18186 1.40179)
(4.75585 0.181231 1.40185)
(4.75808 0.180491 1.40192)
(5.24192 0.180491 1.40192)
(5.24415 0.181231 1.40185)
(5.25 0.18186 1.40179)
(5.25585 0.181231 1.40185)
(5.25808 0.180491 1.40192)
(5.26148 0.179479 1.40223)
(5.27772 0.163525 1.40707)
(5.27827 0.161732 1.40761)
(5.26667 0.176755 1.40305)
(5.22173 0.161732 1.40761)
(5.22228 0.163525 1.40707)
(4.77772 0.163525 1.40707)
(4.77827 0.161732 1.40761)
(5.22506 0.168622 1.40552)
(4.77494 0.168622 1.40552)
(5.22879 0.173089 1.40417)
(4.77121 0.173089 1.40417)
(5.23333 0.176755 1.40305)
(5.23852 0.179479 1.40223)
(5.27942 0.148048 1.41493)
(5.27818 0.144443 1.41685)
(5.22182 0.144443 1.41685)
(5.22058 0.148048 1.41493)
(4.77942 0.148048 1.41493)
(4.77818 0.144443 1.41685)
(5.22 0.153212 1.41217)
(5.22058 0.158376 1.4094)
(5.27772 0.143234 1.41785)
(5.26148 0.130514 1.42828)
(5.25633 0.129289 1.42929)
(5.27494 0.139171 1.42118)
(5.24367 0.129289 1.42929)
(5.23852 0.130514 1.42828)
(4.76148 0.130514 1.42828)
(4.75633 0.129289 1.42929)
(5.23333 0.132686 1.4265)
(4.76667 0.132686 1.4265)
(5.22879 0.135609 1.4241)
(4.77121 0.135609 1.4241)
(5.22506 0.139171 1.42118)
(5.22228 0.143234 1.41785)
(5.25585 0.129192 1.42941)
(2.74415 0.129192 1.42941)
(5.25 0.128801 1.42988)
(5.24415 0.129192 1.42941)
(4.75585 0.129192 1.42941)
(2.75 0.128801 1.42989)
(2.75585 0.129192 1.42941)
(3.24415 0.129192 1.42941)
(4.75 0.128801 1.42988)
(4.74415 0.129192 1.42941)
(4.25585 0.129192 1.42941)
(3.25 0.128801 1.42989)
(4.25 0.128801 1.42988)
(4.24415 0.129192 1.42941)
(3.25585 0.129192 1.42941)
(2.73852 0.130514 1.57172)
(2.74367 0.129289 1.57071)
(2.73333 0.132686 1.5735)
(2.72182 0.144443 1.58315)
(2.72228 0.143234 1.58215)
(2.72173 0.161732 1.59239)
(2.72058 0.158376 1.5906)
(2.74192 0.180491 1.59808)
(2.73852 0.179479 1.59777)
(2.73333 0.176755 1.59695)
(2.72228 0.163525 1.59293)
(3.22182 0.144443 1.58315)
(3.22228 0.143234 1.58215)
(2.77818 0.144443 1.58315)
(3.22506 0.139171 1.57882)
(2.77494 0.139171 1.57882)
(3.22879 0.135609 1.5759)
(2.77121 0.135609 1.5759)
(3.23333 0.132686 1.5735)
(3.23852 0.130514 1.57172)
(3.24367 0.129289 1.57071)
(2.75633 0.129289 1.57071)
(2.77942 0.158376 1.5906)
(2.77827 0.161732 1.59239)
(3.22173 0.161732 1.59239)
(3.22058 0.158376 1.5906)
(2.78 0.153212 1.58783)
(2.76148 0.179479 1.59777)
(2.75808 0.180491 1.59808)
(3.24192 0.180491 1.59808)
(3.23852 0.179479 1.59777)
(2.76667 0.176755 1.59695)
(3.23333 0.176755 1.59695)
(2.77121 0.173089 1.59583)
(3.22879 0.173089 1.59583)
(2.77494 0.168622 1.59448)
(2.77772 0.163525 1.59293)
(3.72228 0.143234 1.58215)
(3.27772 0.143234 1.58215)
(3.27818 0.144443 1.58315)
(3.27494 0.139171 1.57882)
(3.72879 0.135609 1.5759)
(3.27121 0.135609 1.5759)
(3.73333 0.132686 1.5735)
(3.25633 0.129289 1.57071)
(3.73852 0.130514 1.57172)
(3.74367 0.129289 1.57071)
(3.27942 0.158376 1.5906)
(3.27827 0.161732 1.59239)
(3.72058 0.158376 1.5906)
(3.28 0.153212 1.58783)
(3.27942 0.148048 1.58507)
(3.26148 0.179479 1.59777)
(3.25808 0.180491 1.59808)
(3.74192 0.180491 1.59808)
(3.73852 0.179479 1.59777)
(3.26667 0.176755 1.59695)
(3.73333 0.176755 1.59695)
(3.27121 0.173089 1.59583)
(3.72879 0.173089 1.59583)
(3.27494 0.168622 1.59448)
(3.27772 0.163525 1.59293)
(4.22182 0.144443 1.58315)
(3.77772 0.143234 1.58215)
(4.22506 0.139171 1.57882)
(4.22879 0.135609 1.5759)
(3.77121 0.135609 1.5759)
(4.23333 0.132686 1.5735)
(4.24367 0.129289 1.57071)
(3.75633 0.129289 1.57071)
(3.77942 0.158376 1.5906)
(4.22173 0.161732 1.59239)
(4.22058 0.158376 1.59059)
(3.77942 0.148048 1.58507)
(3.76148 0.179479 1.59777)
(3.75808 0.180491 1.59808)
(4.24192 0.180491 1.59808)
(4.23852 0.179479 1.59777)
(3.76667 0.176755 1.59695)
(4.23333 0.176755 1.59695)
(3.77121 0.173089 1.59583)
(4.22879 0.173089 1.59583)
(3.77772 0.163525 1.59293)
(4.27818 0.144443 1.58315)
(4.72182 0.144443 1.58315)
(4.72228 0.143234 1.58215)
(4.27494 0.139171 1.57882)
(4.72506 0.139171 1.57882)
(4.27121 0.135609 1.5759)
(4.72879 0.135609 1.5759)
(4.26667 0.132686 1.5735)
(4.25633 0.129289 1.57071)
(4.74367 0.129289 1.57071)
(4.27942 0.158376 1.59059)
(4.27827 0.161732 1.59239)
(4.72173 0.161732 1.59239)
(4.72058 0.158376 1.59059)
(4.28 0.153212 1.58783)
(4.26148 0.179479 1.59777)
(4.25808 0.180491 1.59808)
(4.74192 0.180491 1.59808)
(4.73852 0.179479 1.59777)
(4.26667 0.176755 1.59695)
(4.73333 0.176755 1.59695)
(4.27121 0.173089 1.59583)
(4.72879 0.173089 1.59583)
(4.27494 0.168622 1.59448)
(4.27772 0.163525 1.59293)
(3.24415 0.129192 1.57059)
(2.75585 0.129192 1.57059)
(3.25 0.128801 1.57011)
(3.25585 0.129192 1.57059)
(3.74415 0.129192 1.57059)
(3.75 0.128801 1.57011)
(3.75585 0.129192 1.57059)
(4.25 0.128801 1.57011)
(4.74415 0.129192 1.57059)
(4.75 0.128801 1.57011)
(4.75633 0.129289 1.57071)
(5.24367 0.129289 1.57071)
(5.24415 0.129192 1.57059)
(5.25 0.128801 1.57011)
(5.25585 0.129192 1.57059)
(5.25633 0.129289 1.57071)
(5.26148 0.130514 1.57171)
(5.26667 0.132686 1.5735)
(5.27772 0.143234 1.58215)
(5.27818 0.144443 1.58315)
(4.77818 0.144443 1.58315)
(5.22182 0.144443 1.58315)
(5.22228 0.143234 1.58215)
(4.77494 0.139171 1.57882)
(5.22506 0.139171 1.57882)
(4.77121 0.135609 1.5759)
(5.22879 0.135609 1.5759)
(4.76667 0.132686 1.5735)
(5.27942 0.158376 1.59059)
(5.27827 0.161732 1.59239)
(4.77942 0.158376 1.59059)
(4.77827 0.161732 1.59239)
(5.22173 0.161732 1.59239)
(5.22058 0.158376 1.59059)
(4.78 0.153212 1.58783)
(5.26148 0.179479 1.59777)
(5.25808 0.180491 1.59808)
(5.26667 0.176755 1.59695)
(5.27772 0.163525 1.59293)
(4.76148 0.179479 1.59777)
(4.75808 0.180491 1.59808)
(5.24192 0.180491 1.59808)
(5.23852 0.179479 1.59777)
(4.76667 0.176755 1.59695)
(5.23333 0.176755 1.59695)
(4.77121 0.173089 1.59583)
(5.22879 0.173089 1.59583)
(4.77494 0.168622 1.59448)
(4.77772 0.163525 1.59293)
(2.75 0.18186 1.59821)
(2.74415 0.181231 1.59815)
(5.25585 0.181231 1.59815)
(5.25 0.18186 1.59821)
(2.75585 0.181231 1.59815)
(3.24415 0.181231 1.59815)
(3.25 0.18186 1.59821)
(5.24415 0.181231 1.59815)
(4.75585 0.181231 1.59815)
(4.75 0.18186 1.59821)
(3.25585 0.181231 1.59815)
(4.74415 0.181231 1.59815)
(4.25585 0.181231 1.59815)
(3.74415 0.181231 1.59815)
(3.75 0.18186 1.59821)
(3.75585 0.181231 1.59815)
(5.5 0.298079 1.48049)
(5.5 0.3 1.5)
(5.5 0.292388 1.46173)
(5.5 0.283147 1.44444)
(5.5 0.270711 1.42929)
(5.5 0.255557 1.41685)
(5.5 0.238268 1.40761)
(5.5 0.219509 1.40192)
(5.5 0.2 1.4)
(5.5 0.107612 1.46173)
(5.5 0.116853 1.44444)
(5.5 0.101921 1.48049)
(5.5 0.1 1.5)
(5.5 0.101921 1.51951)
(5.5 0.107612 1.53827)
(5.5 0.116853 1.55556)
(5.5 0.219509 1.59808)
(5.5 0.2 1.6)
(5.5 0.238268 1.59239)
(5.5 0.255557 1.58315)
(5.5 0.270711 1.57071)
(5.5 0.283147 1.55556)
(5.5 0.292388 1.53827)
(5.5 0.298079 1.51951)
(5.5 0.180491 1.59808)
(5.5 0.161732 1.59239)
(5.5 0.129289 1.57071)
(5.5 0.144443 1.58315)
(5.5 0.129289 1.42929)
(5.5 0.161732 1.40761)
(5.5 0.144443 1.41685)
(5.5 0.180491 1.40192)
)


// edges:

744
(
(104 105)
(106 107)
(108 109)
(110 111)
(105 112)
(113 106)
(0 1)
(114 0)
(1 115)
(109 116)
(117 110)
(112 118)
(119 113)
(116 120)
(121 117)
(2 122)
(3 2)
(123 3)
(118 124)
(125 119)
(120 126)
(127 121)
(122 128)
(129 123)
(124 130)
(131 125)
(126 132)
(133 127)
(128 134)
(135 129)
(130 136)
(137 131)
(132 138)
(139 133)
(134 140)
(141 135)
(136 142)
(143 137)
(140 104)
(107 141)
(142 108)
(111 143)
(144 114)
(115 145)
(147 10)
(148 149)
(13 148)
(151 14)
(11 151)
(152 12)
(14 152)
(153 154)
(155 156)
(15 157)
(157 16)
(158 15)
(16 153)
(159 160)
(161 18)
(163 17)
(20 163)
(19 20)
(164 21)
(165 155)
(154 166)
(167 164)
(23 167)
(166 169)
(169 24)
(25 22)
(171 161)
(160 172)
(26 173)
(27 171)
(29 175)
(175 28)
(173 177)
(177 30)
(178 31)
(179 165)
(180 32)
(21 180)
(32 178)
(172 181)
(33 182)
(34 183)
(183 26)
(182 34)
(185 147)
(36 185)
(145 179)
(37 38)
(189 40)
(39 189)
(181 144)
(149 42)
(44 193)
(193 45)
(46 41)
(156 139)
(138 159)
(17 195)
(195 196)
(197 158)
(48 197)
(196 199)
(199 200)
(201 47)
(200 202)
(202 203)
(49 201)
(204 49)
(50 204)
(205 50)
(51 205)
(203 4)
(206 5)
(4 206)
(207 6)
(5 207)
(208 209)
(6 208)
(210 52)
(209 210)
(212 54)
(53 212)
(213 51)
(54 213)
(214 215)
(232 233)
(59 234)
(62 253)
(258 259)
(260 261)
(264 265)
(266 267)
(270 271)
(275 276)
(281 282)
(285 286)
(291 292)
(301 214)
(304 305)
(305 307)
(72 312)
(313 311)
(312 314)
(221 313)
(322 323)
(324 325)
(323 326)
(327 324)
(334 335)
(336 77)
(335 337)
(227 336)
(78 343)
(343 344)
(346 347)
(79 348)
(349 346)
(348 350)
(350 352)
(352 56)
(82 357)
(358 356)
(357 359)
(231 358)
(233 84)
(366 367)
(367 369)
(370 85)
(372 370)
(234 372)
(377 378)
(379 87)
(378 380)
(381 379)
(389 390)
(391 392)
(390 393)
(394 391)
(316 399)
(399 401)
(402 340)
(339 403)
(401 402)
(403 404)
(405 362)
(361 406)
(404 405)
(406 407)
(408 235)
(383 409)
(407 408)
(409 410)
(411 412)
(410 411)
(414 415)
(415 416)
(429 427)
(244 429)
(446 447)
(449 446)
(442 454)
(455 304)
(454 456)
(457 444)
(447 458)
(456 457)
(459 455)
(325 460)
(460 459)
(461 322)
(458 462)
(463 389)
(392 464)
(462 463)
(465 461)
(464 466)
(467 366)
(466 467)
(347 468)
(468 465)
(253 90)
(469 470)
(471 469)
(478 258)
(488 489)
(487 488)
(490 260)
(495 491)
(63 495)
(496 497)
(498 499)
(500 496)
(502 500)
(504 502)
(503 264)
(513 266)
(514 515)
(512 514)
(521 522)
(523 524)
(525 521)
(524 526)
(527 525)
(526 528)
(529 527)
(528 65)
(94 533)
(533 534)
(534 536)
(536 66)
(538 270)
(540 541)
(541 272)
(543 544)
(545 546)
(547 543)
(546 548)
(549 547)
(548 550)
(99 549)
(550 273)
(555 100)
(557 555)
(559 557)
(67 559)
(276 561)
(562 563)
(564 565)
(566 562)
(565 277)
(68 566)
(567 568)
(569 570)
(571 567)
(570 572)
(573 571)
(572 574)
(575 573)
(574 279)
(489 577)
(578 490)
(577 579)
(282 578)
(580 513)
(515 581)
(579 580)
(581 582)
(583 538)
(582 583)
(561 585)
(584 101)
(588 589)
(586 102)
(589 590)
(591 592)
(590 591)
(470 281)
(592 593)
(593 594)
(600 103)
(602 600)
(604 602)
(69 604)
(286 588)
(605 606)
(288 605)
(607 608)
(609 610)
(611 607)
(610 289)
(70 611)
(612 613)
(614 612)
(292 614)
(616 617)
(618 619)
(620 616)
(619 621)
(622 620)
(621 623)
(624 622)
(623 293)
(0 2)
(3 1)
(13 12)
(19 18)
(23 22)
(27 28)
(28 29)
(29 30)
(36 35)
(37 31)
(38 31)
(35 40)
(40 38)
(33 41)
(43 42)
(44 43)
(33 46)
(46 44)
(48 47)
(5 4)
(6 5)
(76 77)
(55 76)
(57 55)
(80 57)
(73 75)
(74 73)
(71 74)
(72 71)
(83 86)
(58 83)
(81 58)
(82 81)
(60 87)
(89 60)
(88 89)
(61 88)
(93 65)
(64 93)
(91 64)
(92 91)
(95 96)
(98 95)
(97 98)
(99 97)
(146 11)
(10 146)
(150 13)
(12 150)
(162 19)
(18 162)
(168 23)
(22 168)
(170 25)
(24 170)
(28 174)
(174 27)
(176 29)
(30 176)
(35 184)
(184 36)
(31 186)
(186 37)
(38 187)
(187 39)
(40 188)
(188 35)
(190 33)
(41 190)
(42 191)
(191 43)
(192 44)
(43 192)
(194 46)
(45 194)
(198 48)
(47 198)
(211 53)
(52 211)
(216 217)
(218 219)
(220 221)
(222 223)
(224 225)
(226 227)
(228 55)
(57 229)
(230 231)
(235 236)
(60 237)
(238 61)
(239 240)
(243 244)
(247 248)
(251 252)
(254 255)
(256 257)
(262 263)
(64 268)
(65 269)
(272 7)
(273 274)
(277 278)
(279 280)
(283 284)
(287 288)
(289 290)
(293 294)
(295 296)
(297 298)
(299 300)
(215 299)
(298 301)
(302 216)
(303 297)
(217 303)
(306 302)
(307 218)
(219 306)
(71 308)
(309 310)
(308 72)
(311 309)
(315 316)
(314 315)
(317 220)
(73 318)
(319 320)
(318 74)
(223 319)
(321 71)
(74 321)
(310 222)
(326 328)
(329 327)
(328 75)
(225 329)
(330 73)
(75 330)
(320 224)
(331 332)
(333 76)
(332 334)
(77 333)
(338 339)
(337 338)
(340 226)
(341 78)
(342 57)
(55 342)
(76 228)
(344 331)
(345 79)
(351 349)
(80 351)
(56 341)
(229 80)
(81 353)
(354 355)
(353 82)
(356 354)
(360 361)
(359 360)
(362 230)
(83 363)
(84 364)
(363 58)
(355 232)
(365 81)
(58 365)
(85 368)
(369 371)
(371 86)
(373 83)
(86 373)
(364 59)
(374 375)
(376 60)
(375 377)
(87 376)
(382 383)
(380 382)
(236 381)
(384 385)
(386 88)
(385 387)
(89 386)
(388 374)
(387 388)
(237 89)
(393 395)
(396 394)
(395 397)
(61 396)
(398 384)
(397 398)
(88 238)
(400 317)
(240 400)
(300 239)
(424 425)
(427 424)
(412 243)
(436 437)
(248 436)
(425 247)
(451 449)
(252 451)
(437 251)
(368 62)
(90 345)
(472 473)
(473 254)
(255 471)
(474 475)
(475 256)
(257 472)
(476 477)
(477 478)
(479 474)
(259 479)
(480 481)
(8 482)
(481 483)
(484 8)
(483 485)
(486 484)
(485 487)
(261 486)
(491 492)
(493 494)
(482 63)
(494 262)
(263 480)
(499 501)
(501 503)
(492 505)
(505 504)
(265 493)
(91 506)
(507 508)
(506 92)
(509 507)
(92 510)
(511 509)
(510 512)
(267 511)
(516 517)
(93 518)
(519 516)
(508 520)
(518 64)
(520 519)
(268 91)
(517 530)
(530 529)
(269 93)
(531 94)
(532 95)
(96 532)
(535 96)
(271 535)
(66 537)
(539 97)
(98 539)
(95 542)
(542 98)
(7 531)
(97 551)
(551 99)
(274 540)
(100 552)
(553 554)
(554 556)
(556 558)
(560 67)
(558 275)
(552 68)
(278 553)
(563 576)
(576 575)
(280 564)
(537 9)
(9 584)
(101 560)
(585 586)
(102 587)
(595 596)
(284 595)
(594 283)
(103 597)
(598 599)
(599 601)
(601 603)
(587 69)
(603 285)
(596 287)
(597 70)
(290 598)
(606 615)
(615 291)
(608 625)
(625 624)
(294 609)
(626 627)
(627 476)
(613 628)
(628 629)
(497 630)
(630 626)
(631 498)
(632 631)
(633 618)
(617 634)
(629 633)
(634 635)
(522 636)
(636 632)
(637 569)
(568 638)
(635 637)
(639 523)
(640 639)
(638 295)
(544 641)
(641 640)
(296 545)
(11 10)
(12 14)
(16 15)
(17 20)
(25 24)
(28 30)
(32 21)
(26 34)
(40 39)
(45 44)
(49 50)
(50 51)
(53 52)
(54 53)
(642 643)
(644 642)
(645 644)
(646 645)
(647 646)
(648 647)
(649 648)
(650 649)
(651 652)
(653 651)
(654 653)
(655 654)
(656 655)
(657 656)
(658 659)
(660 658)
(661 660)
(662 661)
(663 662)
(664 663)
(665 643)
(664 665)
(666 659)
(667 666)
(668 669)
(669 667)
(657 668)
(670 652)
(671 672)
(672 670)
(650 673)
(673 671)
(62 85)
(79 90)
(78 56)
(59 84)
(63 8)
(94 7)
(9 66)
(67 101)
(68 100)
(69 102)
(70 103)
(241 242)
(245 246)
(249 250)
(413 414)
(416 417)
(417 418)
(419 420)
(418 421)
(421 241)
(242 419)
(422 423)
(423 426)
(426 428)
(428 430)
(431 413)
(430 431)
(420 245)
(432 433)
(246 432)
(434 435)
(435 438)
(439 422)
(438 439)
(433 440)
(441 442)
(250 441)
(440 443)
(443 249)
(444 445)
(445 448)
(448 450)
(450 452)
(453 434)
(452 453)
)

// * * * * * * * * * * * * * * * * * * * * * * * * * * * * * * * * * * * * * //


// ************************************************************************* //
