/*--------------------------------*- C++ -*----------------------------------*\
  =========                 |
  \\      /  F ield         | OpenFOAM: The Open Source CFD Toolbox
   \\    /   O peration     | Website:  https://openfoam.org
    \\  /    A nd           | Version:  9
     \\/     M anipulation  |
\*---------------------------------------------------------------------------*/
FoamFile
{
    format      ascii;
    class       volScalarField;
    location    "0";
    object      aefff;
}
// * * * * * * * * * * * * * * * * * * * * * * * * * * * * * * * * * * * * * //

dimensions      [0 2 -1 0 0 0 0];

internalField   uniform 0;

boundaryField
{
    inlet_n1
    {
        type            zeroGradient;
    }
    inlet_n2
    {
        type            zeroGradient;
    }
    inlet_n3
    {
        type            zeroGradient;
    }
    inlet_n4
    {
        type            zeroGradient;
    }
    inlet_n5
    {
        type            zeroGradient;
    }
    inlet_n6
    {
        type            zeroGradient;
    }
    inlet_s1
    {
        type            zeroGradient;
    }
    inlet_s2
    {
        type            zeroGradient;
    }
    inlet_s3
    {
        type            zeroGradient;
    }
    inlet_s4
    {
        type            zeroGradient;
    }
    inlet_s5
    {
        type            zeroGradient;
    }
    inlet_s6
    {
        type            zeroGradient;
    }
    ground
    {
        type            zeroGradient;
    }
    south
    {
        type            symmetryPlane;
    }
    north
    {
        type            symmetryPlane;
    }
    outlet
    {
        type            zeroGradient;
    }
    pipe
    {
        type            zeroGradient;
    }
}


// ************************************************************************* //
